/*--------------------------------*- C++ -*----------------------------------*\
| =========                 |                                                 |
| \\      /  F ield         | OpenFOAM: The Open Source CFD Toolbox           |
|  \\    /   O peration     | Version:  2512                                  |
|   \\  /    A nd           | Website:  www.openfoam.com                      |
|    \\/     M anipulation  |                                                 |
\*---------------------------------------------------------------------------*/
FoamFile
{
    version     2.0;
    format      ascii;
    arch        "LSB;label=32;scalar=64";
    class       polyBoundaryMesh;
    location    "constant/polyMesh";
    object      boundary;
}
// * * * * * * * * * * * * * * * * * * * * * * * * * * * * * * * * * * * * * //

5
(
    inlet
    {
        type            patch;
        nFaces          159;
        startFace       12723;
    }
    side
    {
        type            patch;
        nFaces          408;
        startFace       12882;
    }
    symm
    {
        type            symmetry;
        nFaces          288;
        startFace       13290;
    }
    outlet
    {
        type            patch;
        nFaces          159;
        startFace       13578;
    }
    defaultFaces
    {
        type            patch;
        nFaces          516;
        startFace       13737;
    }
)

// ************************************************************************* //
